/*--------------------------------*- C++ -*----------------------------------*\
| =========                 |                                                 |
| \\      /  F ield         | foam-extend: Open Source CFD                    |
|  \\    /   O peration     | Version:     4.0                                |
|   \\  /    A nd           | Web:         http://www.foam-extend.org         |
|    \\/     M anipulation  |                                                 |
\*---------------------------------------------------------------------------*/
FoamFile
{
    version     2.0;
    format      ascii;
    class       dictionary;
    object      changeDictionaryDict;
}
// * * * * * * * * * * * * * * * * * * * * * * * * * * * * * * * * * * * * * //

dictionaryReplacement
{

fi
{
    internalField 	uniform 	4; 

    boundaryField
    {

	".*"
    	{
            type            zeroGradient;
    	}

	"electrolyte_to_.*"// cathode, anode and bipolar
        {
            type	    regionCoupledSolidFluid;
            side	    fluid;
	    nbrField        fi;
            Kappa           kf;
	    j0		    (-2.09 9.38e-2);
	    b		    (-0.0621347 0.0485);
            E0		    (0.0 1.23);
            value           $internalField;
	}

        frontAndBack
    	{
            type            empty;
    	}

    }
}

kf
    {
        internalField   uniform 20;//  S/m

        boundaryField
        {
	    ".*"
            {
                type            zeroGradient;
            }

	    frontAndBack
    	    {
                type            empty;
    	    }
        }
    }

}


// ************************************************************************* //
