/*--------------------------------*- C++ -*----------------------------------*\
  =========                 |
  \\      /  F ield         | OpenFOAM: The Open Source CFD Toolbox
   \\    /   O peration     | Website:  https://openfoam.org
    \\  /    A nd           | Version:  dev
     \\/     M anipulation  |
\*---------------------------------------------------------------------------*
FoamFile
{
    version     2.0;
    format      ascii;
    class       dictionary;
    object      fvSolution;
}
// * * * * * * * * * * * * * * * * * * * * * * * * * * * * * * * * * * * * * //

solvers
{
    fi
    {
        solver           PCG;
        preconditioner   DIC;
        tolerance        1e-07;
        relTol           0;//0.5;
    }
}

SIMPLE
{
    nNonOrthogonalCorrectors 0;
    convergence              1.0e-7;
}

relaxationFactors
{
    fields
    {
    }
    equations
    {
        fi               0;//0;
    }
}

// ************************************************************************* //
