/*--------------------------------*- C++ -*----------------------------------*\
| =========                 |                                                 |
| \\      /  F ield         | foam-extend: Open Source CFD                    |
|  \\    /   O peration     | Version:     4.0                                |
|   \\  /    A nd           | Web:         http://www.foam-extend.org         |
|    \\/     M anipulation  |                                                 |
\*---------------------------------------------------------------------------*/
FoamFile
{
    version     2.0;
    format      ascii;
    class       polyBoundaryMesh;
    location    "constant/polyMesh";
    object      boundary;
}
// * * * * * * * * * * * * * * * * * * * * * * * * * * * * * * * * * * * * * //

5
(
    top
    {
        type            wall;
        nFaces          100;
        startFace       39700;
    }
    bottom
    {
        type            wall;
        nFaces          100;
        startFace       39800;
    }
    leftLet
    {
        type            wall;
        nFaces          200;
        startFace       39900;
    }
    rightLet
    {
        type            wall;
        nFaces          200;
        startFace       40100;
    }
    frontAndBack
    {
        type            empty;
        nFaces          40000;
        startFace       40300;
    }
)


// ************************************************************************* //
