/*--------------------------------*- C++ -*----------------------------------*\
  =========                 |
  \\      /  F ield         | OpenFOAM: The Open Source CFD Toolbox
   \\    /   O peration     | Website:  https://openfoam.org
    \\  /    A nd           | Version:  6
     \\/     M anipulation  |
\*---------------------------------------------------------------------------*/
FoamFile
{
    version     2.0;
    format      ascii;
    class       volScalarField;
    location    "0/cathode";
    object      fi;
}
// * * * * * * * * * * * * * * * * * * * * * * * * * * * * * * * * * * * * * //

dimensions      [ 1 2 -3 0 0 -1 0 ];

internalField   uniform 0;

boundaryField
{
".*"
    	{
            type            zeroGradient;
    	}

	top
    	{
            type            fixedValue;
            value           uniform 0; 
    	}
        
	cathode_to_electrolyte
        {
  	    type	    regionCoupledSolidFluid;
	    side	    solid;
	    nbrField        fi;
	    value           $internalField;
	    j0		    (-2.09);
	    b		    (-0.0621347);
            E0		    (0.0);
            kappaMethod     lookup;
            kappa           ks;    
        }

	frontAndBack
    	{
            type            empty;
    	}

    }
}


// ************************************************************************* //
