/*--------------------------------*- C++ -*----------------------------------*\
| =========                 |                                                 |
| \\      /  F ield         | OpenFOAM: The Open Source CFD Toolbox           |
|  \\    /   O peration     | Version:  v1812                                 |
|   \\  /    A nd           | Web:      www.OpenFOAM.com                      |
|    \\/     M anipulation  |                                                 |
\*---------------------------------------------------------------------------*/
FoamFile
{
    version     2.0;
    format      ascii;
    class       dictionary;
    object      fvSolution;
}
// * * * * * * * * * * * * * * * * * * * * * * * * * * * * * * * * * * * * * //

solvers
{
    fi
    {
        solver           PCG;
        preconditioner   DIC;
        tolerance        1e-07;
        relTol           0;
    }
}

SIMPLE
{
    nNonOrthogonalCorrectors 0;
    convergence              1.0e-15;
}

relaxationFactors
{
    fields
    {
    }
    equations
    {
        fi               0;
    }
}

// ************************************************************************* //
