/*--------------------------------*- C++ -*----------------------------------*\
  =========                 |
  \\      /  F ield         | OpenFOAM: The Open Source CFD Toolbox
   \\    /   O peration     | Website:  https://openfoam.org
    \\  /    A nd           | Version:  6
     \\/     M anipulation  |
\*---------------------------------------------------------------------------*/
FoamFile
{
    version     2.0;
    format      ascii;
    class       volScalarField;
    location    "0/cathode";
    object      ks;
}
// * * * * * * * * * * * * * * * * * * * * * * * * * * * * * * * * * * * * * //

dimensions      [ -1 -3 3 0 0 2 0 ]; // S/m

internalField   uniform 300;

boundaryField
{
            ".*"
            {
                type            zeroGradient;
            }

	    frontAndBack
    	    {
                type            empty;
    	    }
}


// ************************************************************************* //
